ODM2PSSEConverter/testdata/output/raw.txt
0  ,100.0
PSS/E raw data
BASE CASE
   1,   'Gen1',   16.5,   3,   0,   0,   1,   10,   1.01,   0.0,   1,   
   2,   'Bus1',   230.0,   1,   0,   0,   1,   10,   1,   0,   1,   
   3,   'BusA',   230.0,   1,   0.0000,   20.0000,   1,   10,   1,   0,   1,   
   4,   'BusB',   230.0,   1,   0.0000,   10.0000,   1,   10,   1,   0,   1,   
   5,   'BusC',   230.0,   1,   0.0000,   20.0000,   1,   10,   1,   0,   1,   
   6,   'Bus2',   230.0,   1,   0,   0,   1,   10,   1,   0,   1,   
   7,   'Gen2',   18.0,   2,   0,   0,   1,   10,   1.01,   0,   1,   
   8,   'Bus3',   230.0,   1,   0,   0,   1,   10,   1,   0,   1,   
   9,   'Gen3',   13.8,   2,   0,   0,   1,   10,   1.01,   0,   1,   
0/ END OF BUS DATA, BEGIN LOAD DATA
   3,  '1',  1,  1,  10,  125.0,  70.0,  0,  0,  0,  0,  1,  
   4,  '1',  1,  1,  10,  90.0,  40.0,  0,  0,  0,  0,  1,  
   5,  '1',  1,  1,  10,  100.0,  55.0,  0,  0,  0,  0,  1,  
   6,  '1',  1,  1,  10,  35.0,  10.0,  0,  0,  0,  0,  1,  
0 /END OF LOAD DATA, BEGIN GENERATION DATA
1,   '1',  999.0,   0.0,   999.0,   0.0,   1.01,   0,   100.0,   0,   0.04,   0,   0,   1,   1,   100,   9999,   -9999,   1,   1.0,   0,   1.0,   0,   0.0,   0,   
7,   '1',  163.0,   0.0,   999.0,   0.0,   1.01,   0,   100.0,   0,   0.089,   0,   0,   1,   1,   100,   9999,   -9999,   1,   1.0,   0,   1.0,   0,   0.0,   0,   
9,   '1',  85.0,   0.0,   999.0,   0.0,   1.01,   0,   100.0,   0,   0.107,   0,   0,   1,   1,   100,   9999,   -9999,   1,   1.0,   0,   1.0,   0,   0.0,   0,   
0/ END OF GENERATION DATA, BEGIN BRANCH DATA
   2,  3,  '1',  0.0100,  0.0850,  0.0880,  0,  0,  0,  0,  0,  0,  0,  1,  0,  1,  1.0,  0,  1.0,  0,  1.0,  0,  1.0,  
   2,  4,  '1',  0.0170,  0.0920,  0.0790,  0,  0,  0,  0,  0,  0,  0,  1,  0,  1,  1.0,  0,  1.0,  0,  1.0,  0,  1.0,  
   3,  6,  '1',  0.0320,  0.1610,  0.1530,  0,  0,  0,  0,  0,  0,  0,  1,  0,  1,  1.0,  0,  1.0,  0,  1.0,  0,  1.0,  
   4,  8,  '1',  0.0390,  0.1700,  0.1790,  0,  0,  0,  0,  0,  0,  0,  1,  0,  1,  1.0,  0,  1.0,  0,  1.0,  0,  1.0,  
   6,  5,  '1',  0.0085,  0.0720,  0.0745,  0,  0,  0,  0,  0,  0,  0,  1,  0,  1,  1.0,  0,  1.0,  0,  1.0,  0,  1.0,  
   5,  8,  '1',  0.0119,  0.1008,  0.1045,  0,  0,  0,  0,  0,  0,  0,  1,  0,  1,  1.0,  0,  1.0,  0,  1.0,  0,  1.0,  
0/ END OF BRANCH DATA, BEGIN TRANSFORMER DATA
   1,  2,  0,  '1',  1,  1,  1,  0,  0,  2,  'Gen1_to_Bus1_cirId_1',  1,  1,  1.0,  0,  0.0,  0,  0.0,  0,  0.0
0.0000,  0.0567,  100.0
1.0000,  16.5,  0.0,  0.0,  0.0,  0.0,  0,  0,  1.1,  0.9,  1.1,  0.9,  33,  0,  0.0,  0.0
1.0522,  230.0,  
   7,  6,  0,  '1',  1,  1,  1,  0,  0,  2,  'Gen2_to_Bus2_cirId_1',  1,  1,  1.0,  0,  0.0,  0,  0.0,  0,  0.0
0.0000,  0.0625,  100.0
1.0000,  18.0,  0.0,  0.0,  0.0,  0.0,  0,  0,  1.1,  0.9,  1.1,  0.9,  33,  0,  0.0,  0.0
1.0522,  230.0,  
   9,  8,  0,  '1',  1,  1,  1,  0,  0,  2,  'Gen3_to_Bus3_cirId_1',  1,  1,  1.0,  0,  0.0,  0,  0.0,  0,  0.0
0.0000,  0.0586,  100.0
1.0000,  13.8,  0.0,  0.0,  0.0,  0.0,  0,  0,  1.1,  0.9,  1.1,  0.9,  33,  0,  0.0,  0.0
1.0522,  230.0,  
0 /END OF TRANSFORMER DATA, BEGIN AREA DATA
1, BUS-1, 0, 10, NF, 
0 /END OF AREA DATA, BEGIN TWO-TERNMINAL DC DATA
0 /END OF TWO-TERNMINAL DC DATA, BEGIN VSC DC LINE DATA
0 /END OF VSC DC LINE DATA DATA, BEGIN SWITCHED SHUNT DATA
0 /END OF SWITCHED SHUNT DATA, BEGIN IMPEDANCE CORRECTION DATA
0 /END OF IMPEDANCE CORRECTION DATA, BEGIN MULTI-TERNMINAL DC DATA
0 /END OF MULTI-TERNMINAL DC DATA, BEGIN MULTI-SECTION LINE DATA
0 /END OF MULTI-SECTION LINE  DATA, BEGIN ZONE DATA
0 /END OF ZONE DATA, BEGIN INTER-AREA TRANSFER DATA
0 /END OF INTER-AREA TRANSFER DATA, BEGIN OWNER DATA
0 /END OF OWNER DATA, BEGIN FACTS DEVICE DATA
0 /END OF FACTS DEVICE DATA